tests/corpus/controls/fuse/fuse_legacy_noblow.dss
// Fuse, r4133 never-blows breaking default (WP-U2.1, delta D1): a LEGACY-style
// fuse defined the pre-r4133 way -- `RatedCurrent` only, NO explicit curve --
// gets the r4133 default `FuseCurve=none`, so it NEVER blows even under a solid
// 3-phase fault. On 0.14.5 the same deck would blow all three links (default
// `tlink` curve, `RatedCurrent`-scaled); on r4133 State stays
// [closed, closed, closed] and the blow event log + control queue are empty.
// Pins the breaking default: a legacy fuse deck silently stops protecting.
// r4133-only observable. Compared per step: full model + per-phase State/Normal
// probes + (empty) blow event log.
clear
Set DefaultBaseFrequency=60

new circuit.prot basekv=12.47 phases=3 bus1=src mvasc3=20000 mvasc1=21000
new linecode.lc nphases=3 r1=0.3 x1=0.6 r0=0.7 x0=1.9 c1=0 c0=0 units=mi
new line.feed bus1=src bus2=mid linecode=lc length=1 units=mi
new line.lat bus1=mid bus2=loadb linecode=lc length=1 units=mi
new load.l bus1=loadb phases=3 kv=12.47 kw=500 pf=0.95 model=1

! Legacy fuse: RatedCurrent only, no fusecurve -> r4133 default none -> inert.
new fuse.fz monitoredobj=line.feed monitoredterm=1
~ switchedobj=line.feed switchedterm=1 ratedcurrent=40

! Balanced 3-phase fault: would have melted all links on 0.14.5; inert on r4133.
new fault.f bus1=loadb.1.2.3 phases=3 ontime=0.1 r=0.5 temporary=no

set voltagebases=[12.47]
calcvoltagebases
set mode=duty stepsize=0.1 number=1 controlmode=time
